[General]
#debug-on-errors = true
sim-time-limit = 5400s
output-scalar-file-append = true
#network = inet.examples.adhoc.pruebasGateWay.Grid_mesh3
network = inet.examples.manetrouting.meshTest3.meshTest
num-rngs = 2
cmdenv-status-frequency = 2000s

cmdenv-express-mode = true
tkenv-plugin-path = ../../../Etc/plugins
#tkenv-default-run=1

**.vector-recording = false
**.debug = true
**.coreDebug = false

**.fixhostA[*].wlan[0].radio.channelNumber = 0
**.fixhost6A[*].wlan[0].radio.channelNumber = 0
**.fixhost7A[*].wlan[0].radio.channelNumber = 0

**.wlanMesh.radio.channelNumber = 0
**.meshHost[*].wlan[0].radio.channelNumber = 0

**.wlan[0].radio.channelNumber = 1
**.channelNumber = 0


# mobility
#**.host*.mobilityType = "inet.mobility.RestrictedConstSpeedMobility"
**.meshHost[*].mobility.constraintAreaMinX = -10m
**.meshHost[*].mobility.constraintAreaMinY = -10m
**.meshHost[*].mobility.constraintAreaMaxX = 1300m
**.meshHost[*].mobility.constraintAreaMaxY = 750m

**.staHost[*].mobility.constraintAreaMinX = 0m
**.staHost[*].mobility.constraintAreaMinY = 0m
**.staHost[*].mobility.constraintAreaMaxX = 1300m
**.staHost[*].mobility.constraintAreaMaxY = 750m

**.constraintAreaMinZ = 0m
**.constraintAreaMaxZ = 0.1m

**.constraintAreaMinX = 0m
**.constraintAreaMinY = 0m
**.constraintAreaMaxX = 1280m
**.constraintAreaMaxY = 720m


#**.host*.mobility.updateInterval = 0.1
**.meshHost[*].mobility.updateInterval = 0.1s

# udp apps (on)
# general parameters

**.channelsToScan = "1"

**.staHost[*].mobility.initFromDisplayString = false
**.meshHost[*].mobility.initFromDisplayString = false

#### Traffic destination
#gateway to fix

#mobile to gateway
**.meshHost[*].udpApp[0].serverAddress ="gateWay2"
**.staHost[*].udpApp[0].serverAddress ="gateWay2"
**.staHost[*].udpApp[0].typename = "UDPVideoStreamCli2"
**.meshHost[*].udpApp[0].typename = "UDPVideoStreamCli2"
**.gateWay2.udpApp[0].typename = "UDPVideoStreamSvr2"
**.gateWay2.udpApp[0].localPort = 1235

**.startTime  = uniform(20s,35s)
**.reintent = 60s
**.timeOut = 10s

**.udpApp[0].localPort = 1234
**.udpApp[0].serverPort = 1235
**.gateWay**.convertToEtherFrame = false


**.gateWay2.udpApp[0].sendInterval =  0.08s
**.gateWay2.udpApp[0].packetLen = 512B
**.gateWay2.udpApp[0].videoSize = 20MiB


# tcp apps (off)
**.numTcpApps = 0
**.tcpAppType = "TelnetApp"

# ping app (host[0] pinged by others)
# ping app (off)
**.pingApp.destAddr = ""
**.pingApp.srcAddr = ""
**.pingApp.packetSize = 56B
**.pingApp.interval = 1s
**.pingApp.hopLimit = 32
**.pingApp.count = 0
**.pingApp.startTime = 1s
**.pingApp.stopTime = 0
**.pingApp.printPing = true


# tcp settings
**.tcp.mss = 1024
**.tcp.advertisedWindow = 14336  # 14*mss
**.tcp.sendQueueClass = "TCPMsgBasedSendQueue"
**.tcp.receiveQueueClass = "TCPMsgBasedRcvQueue"
**.tcp.tcpAlgorithmClass = "TCPReno"
**.tcp.recordStats = true
**.tcp.sackSupport = true   # Selective Acknowledgment (RFC 2018, 2883, 3517) support (header option) (SACK will be enabled for a connection if both endpoints support it)


# ip settings
**.routingFile = ""
**.ip.procDelay = 10us
# **.IPForward=false

# ARP configuration
**.arp.retryTimeout = 1s
**.arp.retryCount = 3
**.arp.cacheTimeout = 100s
**.arp.globalARP = true
#**.networklayer.proxyARP = true  # Host's is hardwired "false"

# manet routing

**.hasLocator = true

# nic settings
**.wlan*.mgmt.frameCapacity = 10
#**.wlan.mgmt.Willingness = 3
#**.wlan.mgmt.Hello_ival = 2
#**.wlan.mgmt.Tc_ival = 5
#**.wlan.mgmt.Mid_ival = 5
#**.wlan.mgmt.use_mac = false
#**.numMeshHost = 0

**.fixhostB[*].autoconfigurator.interfaces = "wlanMesh wlan0"
**.fixhost2[*].autoconfigurator.interfaces = "wlanMesh wlan0"
**.fixhost3[*].autoconfigurator.interfaces = "wlanMesh wlan0"
**.fixhost4B[*].autoconfigurator.interfaces = "wlanMesh wlan0"
**.fixhost5B[*].autoconfigurator.interfaces = "wlanMesh wlan0"
**.fixhost6[*].autoconfigurator.interfaces = "wlanMesh wlan0"
**.fixhost7[*].autoconfigurator.interfaces = "wlanMesh wlan0"
**.gateWay*.autoconfigurator.interfaces = "wlanMesh eth0"
**.staHost[*].autoconfigurator.interfaces = "wlan0"
**.meshHost[*].autoconfigurator.interfaces = "wlan0"


**.fixhostB[*].autoconfigurator.defaultInterface = "wlanMesh"
**.fixhost2[*].autoconfigurator.defaultInterface = "wlanMesh"
**.fixhost3[*].autoconfigurator.defaultInterface = "wlanMesh"
**.fixhost4B[*].autoconfigurator.defaultInterface = "wlanMesh"
**.fixhost5B[*].autoconfigurator.defaultInterface = "wlanMesh"
**.fixhost6[*].autoconfigurator.defaultInterface = "wlanMesh"
**.fixhost7[*].autoconfigurator.defaultInterface = "wlanMesh"
**.gateWay*.autoconfigurator.defaultInterface = "wlanMesh"
**.staHost[*].autoconfigurator.defaultInterface = "wlan0"
**.meshHost[*].autoconfigurator.defaultInterface = "wlan0"

**.fixhostB[*].autoconfigurator.defaultAddressInterface = "wlanMesh"
**.fixhost2[*].autoconfigurator.defaultAddressInterface = "wlanMesh"
**.fixhost3[*].autoconfigurator.defaultAddressInterface = "wlanMesh"
**.fixhost4B[*].autoconfigurator.defaultAddressInterface = "wlanMesh"
**.fixhost5B[*].autoconfigurator.defaultAddressInterface = "wlanMesh"
**.fixhost6[*].autoconfigurator.defaultAddressInterface = "wlanMesh"
**.fixhost7[*].autoconfigurator.defaultAddressInterface = "wlanMesh"
**.gateWay*.autoconfigurator.defaultAddressInterface = "wlanMesh"
**.staHost[*].autoconfigurator.defaultAddressInterface = "wlan0"
**.meshHost[*].autoconfigurator.defaultInterface = "wlan0"

**.fixhostB[*].autoconfigurator.addressBaseList = "192.168.0.0 192.168.0.0"
**.fixhost2[*].autoconfigurator.addressBaseList = "192.168.0.0 192.168.0.0"
**.fixhost3[*].autoconfigurator.addressBaseList = "192.168.0.0 192.168.0.0"
**.fixhost4B[*].autoconfigurator.addressBaseList = "192.168.0.0 192.168.0.0"
**.fixhost5B[*].autoconfigurator.addressBaseList = "192.168.0.0 192.168.0.0"
**.fixhost6[*].autoconfigurator.addressBaseList = "192.168.0.0 192.168.0.0"
**.fixhost7[*].autoconfigurator.addressBaseList = "192.168.0.0 192.168.0.0"
**.gateWay*.autoconfigurator.addressBaseList = "192.168.0.0 192.168.2.0"
**.staHost[*].autoconfigurator.addressBaseList = "192.168.0.0"
**.meshHost[*].autoconfigurator.addressBaseList = "192.168.0.0"

**.fixhostB[*].autoconfigurator.addressMask = "255.255.0.0 255.255.0.0"
**.fixhost2[*].autoconfigurator.addressMask = "255.255.0.0 255.255.0.0"
**.fixhost3[*].autoconfigurator.addressMask = "255.255.0.0 255.255.0.0"
**.fixhost4B[*].autoconfigurator.addressMask = "255.255.0.0 255.255.0.0"
**.fixhost5B[*].autoconfigurator.addressMask = "255.255.0.0 255.255.0.0"
**.fixhost6[*].autoconfigurator.addressMask = "255.255.0.0 255.255.0.0"
**.fixhost7[*].autoconfigurator.addressMask = "255.255.0.0 255.255.0.0"
**.gateWay*.autoconfigurator.addressMask = "255.255.0.0 255.255.255.0"
**.staHost[*].autoconfigurator.addressMask = "255.255.0.0"
**.meshHost[*].autoconfigurator.addressMask = "255.255.0.0"



# nic settings
**.wlan*.opMode = "g"
**.mac.EDCA = false
**.wlan*.mac.address = "auto"
**.wlan*.mac.maxQueueSize = 14
**.wlan*.mac.rtsThresholdBytes = 3000B
**.wlan*.mac.bitrate = 54Mbps
**.wlan*.mac.basicBitrate = 6Mbps  # 24Mbps
**.wlan*.mac.retryLimit = 3 #************************************************num of retrasmission before link break!!!!!
**.wlan*.mac.cwMinData = 31
**.wlan*.mac.cwMinBroadcast = 31
**.wlan*.mac.slotTime = 9us #
**.wlan*.mac.AIFSN = 2 #DIFS
**.wlan*.radio.transmitterPower=2.0mW
**.wlan*.radio.pathLossAlpha=2 ##################################################################
**.wlan*.radio.snirThreshold = 4dB  # in dB
**.wlan*.radio.bitrate=54Mbps
**.wlan*.radio.thermalNoise=-110dBm
**.wlan*.radio.sensitivity=-84dBm
#**.wlan*.radio.sensitivity=-77dBm
#MY COMMENT!!!!!!!!!!!!!!!!!!!!!!!!!!!!!!!!!!!!!!!!!!!!!!!!!!!!!!!!!!!!!!!!!!
#**.wlan[*].radio.berTableFile="/home/luca/per_table_80211g_Trivellato.dat"
**.wlan*.radio.berTableFile="per_table_80211g_Trivellato.dat"



**.mac[*].EDCA = false
**.wlan*.mac[*].address = "auto"
**.wlan*.mac[*].maxQueueSize = 14
**.wlan*.mac[*].rtsThresholdBytes = 3000B
**.wlan*.mac[*].bitrate = 54Mbps
**.wlan*.mac[*].basicBitrate = 6Mbps  # 24Mbps
**.wlan*.mac[*].retryLimit = 3 #************************************************num of retrasmission before link break!!!!!
**.wlan*.mac[*].cwMinData = 31
**.wlan*.mac[*].cwMinBroadcast = 31
**.wlan*.mac[*].slotTime = 9us #
**.wlan*.mac[*].AIFSN = 2 #DIFS
**.wlan*.radio[*].transmitterPower=2.0mW
**.wlan*.radio[*].pathLossAlpha=2 ##################################################################
**.wlan*.radio[*].snirThreshold = 4dB  # in dB
**.wlan*.radio[*].bitrate=54Mbps
**.wlan*.radio[*].thermalNoise=-110dBm
**.wlan*.radio[*].sensitivity=-84dBm
#**.wlan*.radio.sensitivity=-77dBm
#MY COMMENT!!!!!!!!!!!!!!!!!!!!!!!!!!!!!!!!!!!!!!!!!!!!!!!!!!!!!!!!!!!!!!!!!!
#**.wlan[*].radio.berTableFile="/home/luca/per_table_80211g_Trivellato.dat"
**.wlan*.radio[*].berTableFile="per_table_80211g_Trivellato.dat"


# channel physical parameters
*.channelControl.carrierFrequency = 2.4GHz
*.channelControl.pMax = 2.0mW
*.channelControl.sat = -89dBm
#*.channelControl.sat = -110dBm
*.channelControl.alpha = 2
*.channelControl.numChannels = 2

*.channelControl.propagationModel="TwoRayGroundModel"

**.gateWay**.drawCoverage = true
**.drawCoverage = true

#**.use-default=yes

# proccesing delay in the routing protocol, avoid syncronization
**.broadcastDelay = uniform(0s,0.01s) # 10 mseconds 
**.unicastDelay = uniform(0s,0.005s)

#/ parameters : DYMOUM
#**.no_path_acc_ = false
**.no_path_acc_ = true
**.reissue_rreq_ = false
**.s_bit_ = false
**.hello_ival_ = 0
**.MaxPktSec = 20 #// 10
**.promiscuous = false
#**.NetDiameter = 10
**.NetDiameter = 30
**.RouteTimeOut = 3000
**.RouteDeleteTimeOut = 3000*5 #//5*RouteTimeOut
**.RREQWaitTime = 1000
**.RREQTries =3
**.noRouteBehaviour=1

#// Olsr
**.Willingness=3
**.Hello_ival=2
**.Tc_ival=5
**.Mid_ival=5
**.use_mac =0 #1
**.Mpr_algorithm =  1
**.routing_algorithm =   1
**.Link_quality = 2
**.Fish_eye = false
**.Tc_redundancy =    3
**.Link_delay = true #//default false
**.C_alpha=0.2



##################
#################
################3
# mobility models

#**.meshHost[*].mobilityType = "inet.mobility.models.RandomWPMobility"
#**.staHost[*].mobilityType = "inet.mobility.models.RandomWPMobility"
**.meshHost[*].mobilityType = "inet.mobility.models.Ns2MotionMobility"
**.staHost[*].mobilityType = "inet.mobility.models.Ns2MotionMobility"
**.meshHost[*].mobility.scrollX = 0m
**.meshHost[*].mobility.scrollY = 0m
**.staHost[*].mobility.scrollX = 0m
**.staHost[*].mobility.scrollY = 0m

**.meshHost[0].mobility.nodeId = 0
**.meshHost[1].mobility.nodeId = 1
**.meshHost[2].mobility.nodeId = 2
**.meshHost[3].mobility.nodeId = 3
**.meshHost[4].mobility.nodeId = 4
**.meshHost[5].mobility.nodeId = 5
**.meshHost[6].mobility.nodeId = 6
**.meshHost[7].mobility.nodeId = 7
**.meshHost[8].mobility.nodeId = 8
**.meshHost[9].mobility.nodeId = 9


**.staHost[0].mobility.nodeId = 0
**.staHost[1].mobility.nodeId = 1
**.staHost[2].mobility.nodeId = 2
**.staHost[3].mobility.nodeId = 3
**.staHost[4].mobility.nodeId = 4
**.staHost[5].mobility.nodeId = 5
**.staHost[6].mobility.nodeId = 6
**.staHost[7].mobility.nodeId = 7
**.staHost[8].mobility.nodeId = 8
**.staHost[9].mobility.nodeId = 9


**.fixhost**.FixNode = true
**.gateWay**.FixNode = true

##################
#################
################3
# Number of nodes and number sources.
##################
#################
################3

#**.numSta = 15
#**.numMeshHost = 20
**.numSta = 10
**.numMeshHost = 10
**.gateWay2.numUdpApps = 1
#**.staHost[8].numUdpApps = 1
**.staHost[0..14].numUdpApps = 1
#**.meshHost[*].numUdpApps = 0



## no gateway y no anycast
[Config MeshS0S_1]
**.meshHost[0..9].numUdpApps = 0
**.meshHost[*].mobility.traceFile = "mesh1Pat"
**.staHost[*].mobility.traceFile = "sta1Pat"
description = "proactive no gateway"
#### traffic data rate
seed-set = 1
**.mgmt.useProactive = true
**.mgmt.useReactive = false
**.mgmt.useHwmp = false
output-scalar-file = ${resultdir}/proact0MeshSources.sca


## no gateway y no anycast
[Config MeshS0S_2]
**.meshHost[0..9].numUdpApps = 0
**.meshHost[*].mobility.traceFile = "mesh2Pat"
**.staHost[*].mobility.traceFile = "sta2Pat"
description = "proactive no gateway"
#### traffic data rate
seed-set = 2
**.mgmt.useProactive = true
**.mgmt.useReactive = false
**.mgmt.useHwmp = false
output-scalar-file = ${resultdir}/proact0MeshSources.sca


## no gateway y no anycast
[Config MeshS0S_3]
**.meshHost[0..9].numUdpApps = 0
**.meshHost[*].mobility.traceFile = "mesh3Pat"
**.staHost[*].mobility.traceFile = "sta3Pat"
description = "proactive no gateway"
#### traffic data rate
seed-set = 3
**.mgmt.useProactive = true
**.mgmt.useReactive = false
**.mgmt.useHwmp = false
output-scalar-file = ${resultdir}/proact0MeshSources.sca


## no gateway y no anycast
[Config MeshS0S_4]
**.meshHost[0..9].numUdpApps = 0
**.meshHost[*].mobility.traceFile = "mesh4Pat"
**.staHost[*].mobility.traceFile = "sta4Pat"
description = "proactive no gateway"
#### traffic data rate
seed-set = 4
**.mgmt.useProactive = true
**.mgmt.useReactive = false
**.mgmt.useHwmp = false
output-scalar-file = ${resultdir}/proact0MeshSources.sca


## no gateway y no anycast
[Config MeshS0S_5]
**.meshHost[0..9].numUdpApps = 0
**.meshHost[*].mobility.traceFile = "mesh5Pat"
**.staHost[*].mobility.traceFile = "sta5Pat"
description = "proactive no gateway"
#### traffic data rate
seed-set = 5
**.mgmt.useProactive = true
**.mgmt.useReactive = false
**.mgmt.useHwmp = false
output-scalar-file = ${resultdir}/proact0MeshSources.sca



## no gateway y no anycast
[Config MeshS1S_1]
**.meshHost[0].numUdpApps = 1
**.meshHost[*].mobility.traceFile = "mesh1Pat"
**.staHost[*].mobility.traceFile = "sta1Pat"
description = "proactive no gateway"
#### traffic data rate
seed-set = 1
**.mgmt.useProactive = true
**.mgmt.useReactive = false
**.mgmt.useHwmp = false
output-scalar-file = ${resultdir}/proact1MeshSources.sca


## no gateway y no anycast
[Config MeshS1S_2]
**.meshHost[0].numUdpApps = 1
**.meshHost[*].mobility.traceFile = "mesh2Pat"
**.staHost[*].mobility.traceFile = "sta2Pat"
description = "proactive no gateway"
#### traffic data rate
seed-set = 2
**.mgmt.useProactive = true
**.mgmt.useReactive = false
**.mgmt.useHwmp = false
output-scalar-file = ${resultdir}/proact1MeshSources.sca


## no gateway y no anycast
[Config MeshS1S_3]
**.meshHost[0].numUdpApps = 1
**.meshHost[*].mobility.traceFile = "mesh3Pat"
**.staHost[*].mobility.traceFile = "sta3Pat"
description = "proactive no gateway"
#### traffic data rate
seed-set = 3
**.mgmt.useProactive = true
**.mgmt.useReactive = false
**.mgmt.useHwmp = false
output-scalar-file = ${resultdir}/proact1MeshSources.sca


## no gateway y no anycast
[Config MeshS1S_4]
**.meshHost[0].numUdpApps = 1
**.meshHost[*].mobility.traceFile = "mesh4Pat"
**.staHost[*].mobility.traceFile = "sta4Pat"
description = "proactive no gateway"
#### traffic data rate
seed-set = 4
**.mgmt.useProactive = true
**.mgmt.useReactive = false
**.mgmt.useHwmp = false
output-scalar-file = ${resultdir}/proact1MeshSources.sca


## no gateway y no anycast
[Config MeshS1S_5]
**.meshHost[0].numUdpApps = 1
**.meshHost[*].mobility.traceFile = "mesh5Pat"
**.staHost[*].mobility.traceFile = "sta5Pat"
description = "proactive no gateway"
#### traffic data rate
seed-set = 5
**.mgmt.useProactive = true
**.mgmt.useReactive = false
**.mgmt.useHwmp = false
output-scalar-file = ${resultdir}/proact1MeshSources.sca


## no gateway y no anycast
[Config MeshS2S_1]
**.meshHost[0..1].numUdpApps = 1
**.meshHost[*].mobility.traceFile = "mesh1Pat"
**.staHost[*].mobility.traceFile = "sta1Pat"
description = "proactive no gateway"
#### traffic data rate
seed-set = 1
**.mgmt.useProactive = true
**.mgmt.useReactive = false
**.mgmt.useHwmp = false
output-scalar-file = ${resultdir}/proact2MeshSources.sca


## no gateway y no anycast
[Config MeshS2S_2]
**.meshHost[0..1].numUdpApps = 1
**.meshHost[*].mobility.traceFile = "mesh2Pat"
**.staHost[*].mobility.traceFile = "sta2Pat"
description = "proactive no gateway"
#### traffic data rate
seed-set = 2
**.mgmt.useProactive = true
**.mgmt.useReactive = false
**.mgmt.useHwmp = false
output-scalar-file = ${resultdir}/proact2MeshSources.sca


## no gateway y no anycast
[Config MeshS2S_3]
**.meshHost[0..1].numUdpApps = 1
**.meshHost[*].mobility.traceFile = "mesh3Pat"
**.staHost[*].mobility.traceFile = "sta3Pat"
description = "proactive no gateway"
#### traffic data rate
seed-set = 3
**.mgmt.useProactive = true
**.mgmt.useReactive = false
**.mgmt.useHwmp = false
output-scalar-file = ${resultdir}/proact2MeshSources.sca


## no gateway y no anycast
[Config MeshS2S_4]
**.meshHost[0..1].numUdpApps = 1
**.meshHost[*].mobility.traceFile = "mesh4Pat"
**.staHost[*].mobility.traceFile = "sta4Pat"
description = "proactive no gateway"
#### traffic data rate
seed-set = 4
**.mgmt.useProactive = true
**.mgmt.useReactive = false
**.mgmt.useHwmp = false
output-scalar-file = ${resultdir}/proact2MeshSources.sca


## no gateway y no anycast
[Config MeshS2S_5]
**.meshHost[0..1].numUdpApps = 1
**.meshHost[*].mobility.traceFile = "mesh5Pat"
**.staHost[*].mobility.traceFile = "sta5Pat"
description = "proactive no gateway"
#### traffic data rate
seed-set = 5
**.mgmt.useProactive = true
**.mgmt.useReactive = false
**.mgmt.useHwmp = false
output-scalar-file = ${resultdir}/proact2MeshSources.sca



## no gateway y no anycast
[Config MeshS4S_1]
**.meshHost[0..3].numUdpApps = 1
**.meshHost[*].mobility.traceFile = "mesh1Pat"
**.staHost[*].mobility.traceFile = "sta1Pat"
description = "proactive no gateway"
#### traffic data rate
seed-set = 1
**.mgmt.useProactive = true
**.mgmt.useReactive = false
**.mgmt.useHwmp = false
output-scalar-file = ${resultdir}/proact4MeshSources.sca


## no gateway y no anycast
[Config MeshS4S_2]
**.meshHost[0..3].numUdpApps = 1
**.meshHost[*].mobility.traceFile = "mesh2Pat"
**.staHost[*].mobility.traceFile = "sta2Pat"
description = "proactive no gateway"
#### traffic data rate
seed-set = 2
**.mgmt.useProactive = true
**.mgmt.useReactive = false
**.mgmt.useHwmp = false
output-scalar-file = ${resultdir}/proact4MeshSources.sca


## no gateway y no anycast
[Config MeshS4S_3]
**.meshHost[0..3].numUdpApps = 1
**.meshHost[*].mobility.traceFile = "mesh3Pat"
**.staHost[*].mobility.traceFile = "sta3Pat"
description = "proactive no gateway"
#### traffic data rate
seed-set = 3
**.mgmt.useProactive = true
**.mgmt.useReactive = false
**.mgmt.useHwmp = false
output-scalar-file = ${resultdir}/proact4MeshSources.sca


## no gateway y no anycast
[Config MeshS4S_4]
**.meshHost[0..3].numUdpApps = 1
**.meshHost[*].mobility.traceFile = "mesh4Pat"
**.staHost[*].mobility.traceFile = "sta4Pat"
description = "proactive no gateway"
#### traffic data rate
seed-set = 4
**.mgmt.useProactive = true
**.mgmt.useReactive = false
**.mgmt.useHwmp = false
output-scalar-file = ${resultdir}/proact4MeshSources.sca


## no gateway y no anycast
[Config MeshS4S_5]
**.meshHost[0..3].numUdpApps = 1
**.meshHost[*].mobility.traceFile = "mesh5Pat"
**.staHost[*].mobility.traceFile = "sta5Pat"
description = "proactive no gateway"
#### traffic data rate
seed-set = 5
**.mgmt.useProactive = true
**.mgmt.useReactive = false
**.mgmt.useHwmp = false
output-scalar-file = ${resultdir}/proact4MeshSources.sca




## no gateway y no anycast
[Config MeshS7S_1]
**.meshHost[0..6].numUdpApps = 1
**.meshHost[*].mobility.traceFile = "mesh1Pat"
**.staHost[*].mobility.traceFile = "sta1Pat"
description = "proactive no gateway"
#### traffic data rate
seed-set = 1
**.mgmt.useProactive = true
**.mgmt.useReactive = false
**.mgmt.useHwmp = false
output-scalar-file = ${resultdir}/proact7MeshSources.sca


## no gateway y no anycast
[Config MeshS7S_2]
**.meshHost[0..6].numUdpApps = 1
**.meshHost[*].mobility.traceFile = "mesh2Pat"
**.staHost[*].mobility.traceFile = "sta2Pat"
description = "proactive no gateway"
#### traffic data rate
seed-set = 2
**.mgmt.useProactive = true
**.mgmt.useReactive = false
**.mgmt.useHwmp = false
output-scalar-file = ${resultdir}/proact7MeshSources.sca


## no gateway y no anycast
[Config MeshS7S_3]
**.meshHost[0..6].numUdpApps = 1
**.meshHost[*].mobility.traceFile = "mesh3Pat"
**.staHost[*].mobility.traceFile = "sta3Pat"
description = "proactive no gateway"
#### traffic data rate
seed-set = 3
**.mgmt.useProactive = true
**.mgmt.useReactive = false
**.mgmt.useHwmp = false
output-scalar-file = ${resultdir}/proact7MeshSources.sca


## no gateway y no anycast
[Config MeshS7S_4]
**.meshHost[0..6].numUdpApps = 1
**.meshHost[*].mobility.traceFile = "mesh4Pat"
**.staHost[*].mobility.traceFile = "sta4Pat"
description = "proactive no gateway"
#### traffic data rate
seed-set = 4
**.mgmt.useProactive = true
**.mgmt.useReactive = false
**.mgmt.useHwmp = false
output-scalar-file = ${resultdir}/proact7MeshSources.sca


## no gateway y no anycast
[Config MeshS7S_5]
**.meshHost[0..6].numUdpApps = 1
**.meshHost[*].mobility.traceFile = "mesh5Pat"
**.staHost[*].mobility.traceFile = "sta5Pat"
description = "proactive no gateway"
#### traffic data rate
seed-set = 5
**.mgmt.useProactive = true
**.mgmt.useReactive = false
**.mgmt.useHwmp = false
output-scalar-file = ${resultdir}/proact7MeshSources.sca



[Config MeshS9S_1]
**.meshHost[0..8].numUdpApps = 1
**.meshHost[*].mobility.traceFile = "mesh1Pat"
**.staHost[*].mobility.traceFile = "sta1Pat"
description = "proactive no gateway"
#### traffic data rate
seed-set = 1
**.mgmt.useProactive = true
**.mgmt.useReactive = false
**.mgmt.useHwmp = false
output-scalar-file = ${resultdir}/proact9MeshSources.sca


## no gateway y no anycast
[Config MeshS9S_2]
**.meshHost[0..8].numUdpApps = 1
**.meshHost[*].mobility.traceFile = "mesh2Pat"
**.staHost[*].mobility.traceFile = "sta2Pat"
description = "proactive no gateway"
#### traffic data rate
seed-set = 2
**.mgmt.useProactive = true
**.mgmt.useReactive = false
**.mgmt.useHwmp = false
output-scalar-file = ${resultdir}/proact9MeshSources.sca


## no gateway y no anycast
[Config MeshS9S_3]
**.meshHost[0..8].numUdpApps = 1
**.meshHost[*].mobility.traceFile = "mesh3Pat"
**.staHost[*].mobility.traceFile = "sta3Pat"
description = "proactive no gateway"
#### traffic data rate
seed-set = 3
**.mgmt.useProactive = true
**.mgmt.useReactive = false
**.mgmt.useHwmp = false
output-scalar-file = ${resultdir}/proact9MeshSources.sca


## no gateway y no anycast
[Config MeshS9S_4]
**.meshHost[0..8].numUdpApps = 1
**.meshHost[*].mobility.traceFile = "mesh4Pat"
**.staHost[*].mobility.traceFile = "sta4Pat"
description = "proactive no gateway"
#### traffic data rate
seed-set = 4
**.mgmt.useProactive = true
**.mgmt.useReactive = false
**.mgmt.useHwmp = false
output-scalar-file = ${resultdir}/proact9MeshSources.sca


## no gateway y no anycast
[Config MeshS9S_5]
**.meshHost[0..8].numUdpApps = 1
**.meshHost[*].mobility.traceFile = "mesh5Pat"
**.staHost[*].mobility.traceFile = "sta5Pat"
description = "proactive no gateway"
#### traffic data rate
seed-set = 5
**.mgmt.useProactive = true
**.mgmt.useReactive = false
**.mgmt.useHwmp = false
output-scalar-file = ${resultdir}/proact9MeshSources.sca





## no gateway y no anycast
[Config MeshS10S_1]
**.meshHost[0..9].numUdpApps = 1
**.meshHost[*].mobility.traceFile = "mesh1Pat"
**.staHost[*].mobility.traceFile = "sta1Pat"
description = "proactive no gateway"
#### traffic data rate
seed-set = 1
**.mgmt.useProactive = true
**.mgmt.useReactive = false
**.mgmt.useHwmp = false
output-scalar-file = ${resultdir}/proact10MeshSources.sca


## no gateway y no anycast
[Config MeshS10S_2]
**.meshHost[0..9].numUdpApps = 1
**.meshHost[*].mobility.traceFile = "mesh2Pat"
**.staHost[*].mobility.traceFile = "sta2Pat"
description = "proactive no gateway"
#### traffic data rate
seed-set = 1
**.mgmt.useProactive = true
**.mgmt.useReactive = false
**.mgmt.useHwmp = false
output-scalar-file = ${resultdir}/proact10MeshSources.sca


## no gateway y no anycast
[Config MeshS10S_3]
**.meshHost[0..9].numUdpApps = 1
**.meshHost[*].mobility.traceFile = "mesh3Pat"
**.staHost[*].mobility.traceFile = "sta3Pat"
description = "proactive no gateway"
#### traffic data rate
seed-set = 1
**.mgmt.useProactive = true
**.mgmt.useReactive = false
**.mgmt.useHwmp = false
output-scalar-file = ${resultdir}/proact10MeshSources.sca


## no gateway y no anycast
[Config MeshS10S_4]
**.meshHost[0..9].numUdpApps = 1
**.meshHost[*].mobility.traceFile = "mesh4Pat"
**.staHost[*].mobility.traceFile = "sta4Pat"
description = "proactive no gateway"
#### traffic data rate
seed-set = 1
**.mgmt.useProactive = true
**.mgmt.useReactive = false
**.mgmt.useHwmp = false
output-scalar-file = ${resultdir}/proact10MeshSources.sca


## no gateway y no anycast
[Config MeshS10S_5]
**.meshHost[0..9].numUdpApps = 1
**.meshHost[*].mobility.traceFile = "mesh5Pat"
**.staHost[*].mobility.traceFile = "sta5Pat"
description = "proactive no gateway"
#### traffic data rate
seed-set = 1
**.mgmt.useProactive = true
**.mgmt.useReactive = false
**.mgmt.useHwmp = false
output-scalar-file = ${resultdir}/proact10MeshSources.sca
